<?xml version="1.0" encoding="utf-8"?>
<LinearLayout xmlns:android="http://schemas.android.com/apk/res/android"
    xmlns:tools="http://schemas.android.com/tools"
    android:id="@+id/root"
    android:layout_width="match_parent"
    android:layout_height="match_parent"
    android:paddingBottom="@dimen/activity_vertical_margin"
    android:paddingLeft="@dimen/activity_horizontal_margin"
    android:paddingRight="@dimen/activity_horizontal_margin"
    android:paddingTop="@dimen/activity_vertical_margin"
    tools:context="net.cuiwei.diyview.FlowActivity"
    android:orientation="vertical">

    <net.cuiwei.diyview.MyViewGroup
        android:id="@+id/myview"
        android:layout_width="match_parent"
        android:layout_height="wrap_content" />
</LinearLayout>
